Circuit: * C:\users\vasco\Desktop\OSAD\my_ip\LTSPICE\BI_stable01\Bi_stable01.asc

Direct Newton iteration for .op point succeeded.

Date: Sat Dec 07 20:28:47 2024
Total elapsed time: 1.106 seconds.

tnom = 27
temp = 27
method = modified trap
totiter = 203736
traniter = 203727
tranpoints = 101230
accept = 100937
rejected = 293
matrix size = 14
fillins = 4
solver = Normal
Matrix Compiler1:      56 opcodes  0.2/[0.1]/0.1
Matrix Compiler2: off  [0.1]/0.1/0.1

