Circuit: * C:\users\vasco\Desktop\OSAD\my_ip\LTSPICE\bipolar_buffer001\bipolar_buffer001.asc

WARNING: Less than two connections to node NC_01.  This node is used by V4.
Direct Newton iteration for .op point succeeded.

Date: Sun Dec 08 19:42:01 2024
Total elapsed time: 0.048 seconds.

tnom = 27
temp = 27
method = modified trap
totiter = 10041
traniter = 10034
tranpoints = 5018
accept = 5018
rejected = 0
matrix size = 18
fillins = 7
solver = Normal
Matrix Compiler1: 1.53 KB object code size  0.3/0.1/[0.1]
Matrix Compiler2: off  [0.1]/0.2/0.2

