Circuit: * C:\users\vasco\Desktop\OSAD\my_ip\LTSPICE\analog_switch001\switch.asc

Direct Newton iteration for .op point succeeded.
Heightened Def Con from 1.04687e-014 to 3.00001e-009
Heightened Def Con from 6.9e-005 to 6.9e-005
Heightened Def Con from 6.9e-005 to 6.90002e-005
Heightened Def Con from 7.2e-005 ++++++++to 7.2e-005
Heightened Def Con from 7.2e-005 to 7.2e-005
Heightened Def Con from 7.2e-005 to 7.20002e-005
Heightened Def Con from 7.3e-005 +to 7.3e-005
Heightened Def Con from 7.3e-005 ++++to 7.3e-005
Heightened Def Con from 7.3e-005 to 7.3003e-005
Heightened Def Con from 7.5e-005 +++++++++to 7.5e-005
Heightened Def Con from 7.5e-005 ++++to 7.5e-005
Heightened Def Con from 7.5e-005 to 7.5003e-005
Heightened Def Con from 7.8e-005 to 7.8e-005
Heightened Def Con from 7.8e-005 to 7.80002e-005
Heightened Def Con from 8.1e-005 +++to 8.1e-005
Heightened Def Con from 8.1e-005 to 8.1003e-005
Heightened Def Con from 8.2e-005 to 8.20002e-005
Heightened Def Con from 8.3e-005 +++++++++to 8.3e-005
Heightened Def Con from 8.3e-005 to 8.30002e-005
Heightened Def Con from 8.4e-005 ++++++to 8.4e-005
Heightened Def Con from 8.4e-005 +++++++++++to 8.4e-005
Heightened Def Con from 8.4e-005 to 8.40002e-005
Heightened Def Con from 8.5e-005 to 8.50002e-005
Heightened Def Con from 8.6e-005 +to 8.6e-005
Heightened Def Con from 8.6e-005 to 8.60002e-005
Heightened Def Con from 8.7e-005 +to 8.7e-005
Heightened Def Con from 8.7e-005 to 8.70002e-005
Heightened Def Con from 8.9e-005 to 8.9e-005
Heightened Def Con from 8.9e-005 +++++to 8.9e-005
Heightened Def Con from 8.9e-005 to 8.90002e-005
Heightened Def Con from 9.1e-005 to 9.1e-005
Heightened Def Con from 9.1e-005 to 9.1003e-005
Heightened Def Con from 9.3e-005 to 9.30002e-005
Heightened Def Con from 0.000105 ++++++++to 0.000105
Heightened Def Con from 0.000105 to 0.000105
Heightened Def Con from 0.000107 +++to 0.000107
Heightened Def Con from 0.000107 to 0.000107
Heightened Def Con from 0.000108 to 0.000108
Heightened Def Con from 0.000108 to 0.000108003
Heightened Def Con from 0.000112 to 0.000112003
Heightened Def Con from 0.000248 to 0.000248
Heightened Def Con from 0.000248 +to 0.000248
Heightened Def Con from 0.000248 +to 0.000248
Heightened Def Con from 0.000248 to 0.000248003
Heightened Def Con from 0.00025 ++to 0.00025
Heightened Def Con from 0.00025 to 0.00025
Heightened Def Con from 0.00025 to 0.00025
Heightened Def Con from 0.00025 ++++++to 0.00025
Heightened Def Con from 0.00025 +++++++to 0.00025
Heightened Def Con from 0.00025 to 0.00025
Heightened Def Con from 0.000251 to 0.000251
Heightened Def Con from 0.000256 to 0.000256
Heightened Def Con from 0.000257 +to 0.000257
Heightened Def Con from 0.000257 to 0.000257
Heightened Def Con from 0.000258 to 0.000258
Heightened Def Con from 0.000258 +++++to 0.000258
Heightened Def Con from 0.000258 to 0.000258
Heightened Def Con from 0.000258 +++to 0.000258
Heightened Def Con from 0.000258 ++++to 0.000258
Heightened Def Con from 0.000258 to 0.000258003
Heightened Def Con from 0.000264 to 0.000264
Heightened Def Con from 0.000264 ++to 0.000264
Heightened Def Con from 0.000264 ++to 0.000264
Heightened Def Con from 0.000264 +to 0.000264
Heightened Def Con from 0.000264 +++++++to 0.000264
Heightened Def Con from 0.000264 ++to 0.000264
Heightened Def Con from 0.000264 ++++++++++to 0.000264
Heightened Def Con from 0.000264 ++++++to 0.000264
Heightened Def Con from 0.000264 to 0.000264
Heightened Def Con from 0.000267 to 0.000267
Heightened Def Con from 0.000267 to 0.000267
Heightened Def Con from 0.000268 +++++to 0.000268
Heightened Def Con from 0.000268 +++++++to 0.000268
Heightened Def Con from 0.000268 to 0.000268
Heightened Def Con from 0.000281 ++++to 0.000281
Heightened Def Con from 0.000281 +to 0.000281
Heightened Def Con from 0.000281 to 0.000281
Heightened Def Con from 0.000287 +++++to 0.000287
Heightened Def Con from 0.000287 +to 0.000287
Heightened Def Con from 0.000287 +++++++to 0.000287
Heightened Def Con from 0.000287 to 0.000287003
Heightened Def Con from 0.000288 +++to 0.000288
Heightened Def Con from 0.000288 to 0.000288
Heightened Def Con from 0.000288 to 0.000288
Heightened Def Con from 0.000288 to 0.000288
Heightened Def Con from 0.00029 to 0.000290003
Heightened Def Con from 0.000291 ++to 0.000291
Heightened Def Con from 0.000291 to 0.000291
Heightened Def Con from 0.000292 to 0.000292
Heightened Def Con from 0.000292 ++to 0.000292
Heightened Def Con from 0.000292 to 0.000292
Heightened Def Con from 0.000293 to 0.000293
Heightened Def Con from 0.000293 ++++++++to 0.000293
Heightened Def Con from 0.000293 to 0.000293
Heightened Def Con from 0.000294 to 0.000294003
Heightened Def Con from 0.000296 to 0.000296
Heightened Def Con from 0.000296 +++to 0.000296
Heightened Def Con from 0.000296 to 0.000296003
Heightened Def Con from 0.000298 to 0.000298
Heightened Def Con from 0.000298 to 0.000298
Heightened Def Con from 0.0003 ++to 0.0003
Heightened Def Con from 0.0003 to 0.0003
Heightened Def Con from 0.000302 to 0.000302
Heightened Def Con from 0.000302 to 0.000302
Heightened Def Con from 0.000304 to 0.000304
Heightened Def Con from 0.000305 to 0.000305
Heightened Def Con from 0.000305 ++to 0.000305
Heightened Def Con from 0.000305 +to 0.000305
Heightened Def Con from 0.000305 ++++to 0.000305
Heightened Def Con from 0.000305 ++to 0.000305
Heightened Def Con from 0.000305 to 0.000305
Heightened Def Con from 0.000305 to 0.000305
Heightened Def Con from 0.000306 ++to 0.000306
Heightened Def Con from 0.000306 to 0.000306
Heightened Def Con from 0.000306 ++++to 0.000306
Heightened Def Con from 0.000306 +to 0.000306
Heightened Def Con from 0.000306 to 0.000306
Heightened Def Con from 0.000307 +to 0.000307
Heightened Def Con from 0.000307 to 0.000307
Heightened Def Con from 0.000308 +++++++to 0.000308
Heightened Def Con from 0.000308 ++++to 0.000308
Heightened Def Con from 0.000308 to 0.000308
Heightened Def Con from 0.000308 to 0.000308003
Heightened Def Con from 0.000313 +++to 0.000313
Heightened Def Con from 0.000313 +to 0.000313
Heightened Def Con from 0.000313 +++++to 0.000313
Heightened Def Con from 0.000313 to 0.000313003
Heightened Def Con from 0.000315 +++to 0.000315
Heightened Def Con from 0.000315 +++to 0.000315
Heightened Def Con from 0.000315 to 0.000315003
Heightened Def Con from 0.000317 ++++++++++to 0.000317
Heightened Def Con from 0.000317 ++++++to 0.000317
Heightened Def Con from 0.000317 ++to 0.000317
Heightened Def Con from 0.000317 +++to 0.000317
Heightened Def Con from 0.000317 to 0.000317
Heightened Def Con from 0.000318 ++to 0.000318
Heightened Def Con from 0.000318 to 0.000318
Heightened Def Con from 0.000318 to 0.000318
Heightened Def Con from 0.000319 ++to 0.000319
Heightened Def Con from 0.000319 to 0.000319003
Heightened Def Con from 0.000322 +++++to 0.000322
Heightened Def Con from 0.000322 to 0.000322003
Heightened Def Con from 0.000324 +to 0.000324
Heightened Def Con from 0.000324 to 0.000324
Heightened Def Con from 0.000325 to 0.000325
Heightened Def Con from 0.000325 ++++to 0.000325
Heightened Def Con from 0.000325 to 0.000325003
Heightened Def Con from 0.000329 to 0.000329
Heightened Def Con from 0.000332 to 0.000332
Heightened Def Con from 0.000332 to 0.000332003
Heightened Def Con from 0.000336 to 0.000336
Heightened Def Con from 0.00034 ++to 0.00034
Heightened Def Con from 0.00034 ++++to 0.00034
Heightened Def Con from 0.00034 +++to 0.00034
Heightened Def Con from 0.00034 ++to 0.00034
Heightened Def Con from 0.00034 to 0.000340003
Heightened Def Con from 0.000346 +to 0.000346
Heightened Def Con from 0.000346 to 0.000346
Heightened Def Con from 0.000347 to 0.000347
Heightened Def Con from 0.000347 to 0.000347
Heightened Def Con from 0.000348 to 0.000348
Heightened Def Con from 0.000348 to 0.000348
Heightened Def Con from 0.000348 +to 0.000348
Heightened Def Con from 0.000348 to 0.000348
Heightened Def Con from 0.000348 +++++++++++++++++++++to 0.000348
Heightened Def Con from 0.000348 to 0.000348
Heightened Def Con from 0.000349 ++to 0.000349
Heightened Def Con from 0.000349 to 0.000349
Heightened Def Con from 0.00035 to 0.000350003
Heightened Def Con from 0.000358 to 0.000358003
Heightened Def Con from 0.000361 to 0.000361
Heightened Def Con from 0.000363 +to 0.000363
Heightened Def Con from 0.000363 to 0.000363
Heightened Def Con from 0.000363 to 0.000363
Heightened Def Con from 0.000396 ++++++to 0.000396
Heightened Def Con from 0.000396 to 0.000396
Heightened Def Con from 0.000396 +to 0.000396
Heightened Def Con from 0.000396 to 0.000396003
Heightened Def Con from 0.000456 ++++++to 0.000456
Heightened Def Con from 0.000456 ++to 0.000456
Heightened Def Con from 0.000456 to 0.000456
Heightened Def Con from 0.000456 to 0.000456003
Heightened Def Con from 0.000466 +to 0.000466
Heightened Def Con from 0.000466 to 0.000466
Heightened Def Con from 0.000525 +to 0.000525
Heightened Def Con from 0.000525 to 0.000525
Heightened Def Con from 0.000525 +to 0.000525
Heightened Def Con from 0.000525 +to 0.000525
Heightened Def Con from 0.000525 to 0.000525
Heightened Def Con from 0.000525 to 0.000525
Heightened Def Con from 0.000525 +to 0.000525
Heightened Def Con from 0.000525 +to 0.000525
Heightened Def Con from 0.000525 to 0.000525
Heightened Def Con from 0.000666 +++++++++++to 0.000666
Heightened Def Con from 0.000666 ++++++to 0.000666
Heightened Def Con from 0.000666 ++to 0.000666
Heightened Def Con from 0.000666 to 0.000666
Heightened Def Con from 0.000676 +++++to 0.000676
Heightened Def Con from 0.000676 +to 0.000676
Heightened Def Con from 0.000676 +++to 0.000676
Heightened Def Con from 0.000676 to 0.000676
Heightened Def Con from 0.000676 to 0.000676003
Heightened Def Con from 0.000684 +to 0.000684
Heightened Def Con from 0.000684 to 0.000684
Heightened Def Con from 0.000746 +to 0.000746
Heightened Def Con from 0.000746 to 0.000746
Heightened Def Con from 0.000749 ++to 0.000749
Heightened Def Con from 0.000749 +to 0.000749
Heightened Def Con from 0.000749 ++++++to 0.000749
Heightened Def Con from 0.000749 to 0.000749003
Heightened Def Con from 0.000786 +++to 0.000786
Heightened Def Con from 0.000786 to 0.000786003
Heightened Def Con from 0.000787 ++to 0.000787
Heightened Def Con from 0.000787 to 0.000787
Heightened Def Con from 0.00079 +++to 0.00079
Heightened Def Con from 0.00079 to 0.00079
Heightened Def Con from 0.000792 ++to 0.000792
Heightened Def Con from 0.000792 to 0.000792
Heightened Def Con from 0.000793 ++++to 0.000793
Heightened Def Con from 0.000793 +to 0.000793
Heightened Def Con from 0.000793 to 0.000793
Heightened Def Con from 0.000793 to 0.000793
Heightened Def Con from 0.000793 to 0.000793
Heightened Def Con from 0.000794 to 0.000794
Heightened Def Con from 0.000794 to 0.000794
Heightened Def Con from 0.000795 +to 0.000795
Heightened Def Con from 0.000795 +to 0.000795
Heightened Def Con from 0.000795 ++to 0.000795
Heightened Def Con from 0.000795 to 0.000795
Heightened Def Con from 0.000796 +to 0.000796
Heightened Def Con from 0.000796 to 0.000796
Heightened Def Con from 0.000797 +++to 0.000797
Heightened Def Con from 0.000797 to 0.000797
Heightened Def Con from 0.000797 to 0.000797003
Heightened Def Con from 0.000802 to 0.000802
Heightened Def Con from 0.000802 to 0.000802
Heightened Def Con from 0.000803 to 0.000803
Heightened Def Con from 0.000803 to 0.000803
Heightened Def Con from 0.000804 +++++to 0.000804
Heightened Def Con from 0.000804 ++++++to 0.000804
Heightened Def Con from 0.000804 to 0.000804003
Heightened Def Con from 0.000809 +to 0.000809
Heightened Def Con from 0.000809 to 0.000809003
Heightened Def Con from 0.000812 to 0.000812
Heightened Def Con from 0.000812 ++++++to 0.000812
Heightened Def Con from 0.000812 to 0.000812003
Heightened Def Con from 0.000816 to 0.000816
Heightened Def Con from 0.000816 to 0.000816003
Heightened Def Con from 0.000821 +++to 0.000821
Heightened Def Con from 0.000821 to 0.000821003
Heightened Def Con from 0.000825 +++to 0.000825
Heightened Def Con from 0.000825 ++++++++++++to 0.000825
Heightened Def Con from 0.000825 to 0.000825003
Heightened Def Con from 0.000829 to 0.000829
Heightened Def Con from 0.000829 to 0.000829003
Heightened Def Con from 0.000833 to 0.000833
Heightened Def Con from 0.000833 to 0.000833
Heightened Def Con from 0.000834 to 0.000834
Heightened Def Con from 0.000834 to 0.000834
Heightened Def Con from 0.000835 to 0.000835
Heightened Def Con from 0.000835 to 0.000835
Heightened Def Con from 0.000836 ++to 0.000836
Heightened Def Con from 0.000836 ++++++++to 0.000836
Heightened Def Con from 0.000836 +to 0.000836
Heightened Def Con from 0.000836 +++to 0.000836
Heightened Def Con from 0.000836 +++to 0.000836
Heightened Def Con from 0.000836 to 0.000836
Heightened Def Con from 0.000836 ++++to 0.000836
Heightened Def Con from 0.000836 to 0.000836003
Heightened Def Con from 0.000891 ++++++to 0.000891
Heightened Def Con from 0.000891 ++++to 0.000891
Heightened Def Con from 0.000891 ++++++to 0.000891
Heightened Def Con from 0.000891 ++to 0.000891
Heightened Def Con from 0.000891 +to 0.000891
Heightened Def Con from 0.000891 +to 0.000891
Heightened Def Con from 0.000891 +++to 0.000891
Heightened Def Con from 0.000891 to 0.000891003
Heightened Def Con from 0.000899 to 0.000899
Heightened Def Con from 0.000899 +++++to 0.000899
Heightened Def Con from 0.000899 +++++to 0.000899
Heightened Def Con from 0.000899 to 0.000899
Heightened Def Con from 0.000913 to 0.000913
Heightened Def Con from 0.000913 ++++++++++to 0.000913
Heightened Def Con from 0.000913 to 0.000913
Heightened Def Con from 0.000917 +to 0.000917
Heightened Def Con from 0.000917 to 0.000917
Heightened Def Con from 0.00092 +++to 0.00092
Heightened Def Con from 0.00092 to 0.00092
Heightened Def Con from 0.000925 to 0.000925
Heightened Def Con from 0.000925 to 0.000925003
Heightened Def Con from 0.000928 to 0.000928
Heightened Def Con from 0.000928 to 0.000928
Heightened Def Con from 0.000928 to 0.000928003
Heightened Def Con from 0.000931 +to 0.000931
Heightened Def Con from 0.000931 +++to 0.000931
Heightened Def Con from 0.000931 to 0.000931
Heightened Def Con from 0.000931 to 0.000931
Heightened Def Con from 0.000931 to 0.000931
Heightened Def Con from 0.000934 to 0.000934
Heightened Def Con from 0.000934 ++++++++++to 0.000934
Heightened Def Con from 0.000934 to 0.000934003
Heightened Def Con from 0.000938 +to 0.000938
Heightened Def Con from 0.000938 to 0.000938
Heightened Def Con from 0.000938 to 0.000938
Heightened Def Con from 0.000942 +++to 0.000942
Heightened Def Con from 0.000942 +to 0.000942
Heightened Def Con from 0.000942 to 0.000942
Heightened Def Con from 0.000942 ++++++++to 0.000942
Heightened Def Con from 0.000942 to 0.000942
Heightened Def Con from 0.000944 ++++to 0.000944
Heightened Def Con from 0.000944 +++to 0.000944
Heightened Def Con from 0.000944 to 0.000944
Heightened Def Con from 0.000944 +to 0.000944
Heightened Def Con from 0.000944 to 0.000944
Heightened Def Con from 0.000944 to 0.000944
Heightened Def Con from 0.000947 to 0.000947003
Heightened Def Con from 0.000949 +++++++to 0.000949
Heightened Def Con from 0.000949 to 0.000949
Heightened Def Con from 0.000949 +to 0.000949
Heightened Def Con from 0.000949 to 0.000949
Heightened Def Con from 0.000957 +to 0.000957
Heightened Def Con from 0.000957 to 0.000957
Heightened Def Con from 0.00096 to 0.000960003
Heightened Def Con from 0.000962 to 0.000962
Heightened Def Con from 0.000962 ++++++to 0.000962
Heightened Def Con from 0.000962 to 0.000962
Heightened Def Con from 0.000962 to 0.000962
Heightened Def Con from 0.000962 to 0.000962
Heightened Def Con from 0.000964 +++++++++++to 0.000964
Heightened Def Con from 0.000964 +to 0.000964
Heightened Def Con from 0.000964 to 0.000964
Heightened Def Con from 0.000968 +to 0.000968
Heightened Def Con from 0.000968 to 0.000968
Heightened Def Con from 0.000975 +++++to 0.000975
Heightened Def Con from 0.000975 to 0.000975
Heightened Def Con from 0.000975 to 0.000975

Date: Sat Dec 07 23:47:25 2024
Total elapsed time: 8.029 seconds.

tnom = 27
temp = 27
method = modified trap
totiter = 2143801
traniter = 2143781
tranpoints = 1042594
accept = 1027474
rejected = 16009
matrix size = 19
fillins = 0
solver = Normal
Matrix Compiler1:      56 opcodes  0.2/[0.1]/0.1
Matrix Compiler2: off  [0.1]/0.2/0.2

