Circuit: * C:\users\vasco\Desktop\OSAD\my_ip\LTSPICE\audio001\audio001.asc


Date: Sun Dec 29 21:48:17 2024
Total elapsed time: 0.022 seconds.

tnom = 27
temp = 126
method = trap
totiter = 377
traniter = 0
tranpoints = 0
accept = 0
rejected = 0
matrix size = 10
fillins = 0
solver = Normal
Matrix Compiler1:      27 opcodes  0.1/[0.1]/0.1
Matrix Compiler2: off  [0.1]/0.1/0.1

