Circuit: * C:\users\vasco\Desktop\OSAD\my_ip\LTSPICE\audio001\audio001.asc

Direct Newton iteration for .op point succeeded.

Date: Fri Dec 06 23:26:31 2024
Total elapsed time: 0.021 seconds.

tnom = 27
temp = 27
method = trap
totiter = 20
traniter = 0
tranpoints = 0
accept = 0
rejected = 0
matrix size = 10
fillins = 0
solver = Normal
Matrix Compiler1:      29 opcodes
Matrix Compiler2: 762 bytes object code size
