Circuit: * C:\users\vasco\Desktop\OSAD\my_ip\LTSPICE\ACG1\ACG1.asc

Direct Newton iteration for .op point succeeded.

Date: Thu Dec 05 20:16:58 2024
Total elapsed time: 0.039 seconds.

tnom = 27
temp = 27
method = trap
totiter = 9
traniter = 0
tranpoints = 0
accept = 0
rejected = 0
matrix size = 29
fillins = 0
solver = Normal
Matrix Compiler1:     106 opcodes
Matrix Compiler2: 2.52 KB object code size
