Circuit: * C:\users\vasco\Desktop\OSAD\my_ip\LTSPICE\ACG1\ACG1.asc

Direct Newton iteration for .op point succeeded.

Date: Fri Dec 06 23:46:09 2024
Total elapsed time: 0.037 seconds.

tnom = 27
temp = 27
method = trap
totiter = 9
traniter = 0
tranpoints = 0
accept = 0
rejected = 0
matrix size = 30
fillins = 0
solver = Normal
Matrix Compiler1:     109 opcodes
Matrix Compiler2: 2.59 KB object code size
