Circuit: * C:\users\vasco\Desktop\OSAD\my_ip\LTSPICE\bipolar_buffer02\buffer002.asc

WARNING: Less than two connections to node N009.  This node is used by V3.
Direct Newton iteration for .op point succeeded.

Date: Tue Dec 10 22:14:04 2024
Total elapsed time: 0.259 seconds.

tnom = 27
temp = 27
method = modified trap
totiter = 40047
traniter = 40037
tranpoints = 20018
accept = 20018
rejected = 0
matrix size = 31
fillins = 20
solver = Normal
Matrix Compiler1: 3.32 KB object code size  0.6/0.2/[0.2]
Matrix Compiler2: off  [0.2]/0.3/0.2

